/batch
/config,noeldb,1     ! force off writing results to database
*get,_wallstrt,active,,time,wall
! ANSYS input file written by Workbench version 2020 R1
! File used for geometry attach: D:\Material\New_Pro\Paper5-6_ANCF\Ansys Model\IBeam_files\dp0\SYS-32\DM\SYS-32.agdb
/title,IBeam--Static Structural (N5)
*DIM,_wb_ProjectScratch_dir,string,248
_wb_ProjectScratch_dir(1) = 'D:\Material\New_Pro\Paper5-6_ANCF\Ansys Model\_ProjectScratch\Scr6F0E\'
*DIM,_wb_SolverFiles_dir,string,248
_wb_SolverFiles_dir(1) = 'D:\Material\New_Pro\Paper5-6_ANCF\Ansys Model\IBeam_files\dp0\SYS-32\MECH\'
*DIM,_wb_userfiles_dir,string,248
_wb_userfiles_dir(1) = 'D:\Material\New_Pro\Paper5-6_ANCF\Ansys Model\IBeam_files\user_files\'
/com,--- Data in consistent MKS units. See Solving Units in the help system for more information.
/units,MKS
/nopr
/wb,file,start              !  signify a WB generated input file
/prep7
! Turn off shape checking because checks already performed inside WB mesher.
! See help system for more information.
SHPP,OFF,,NOWARN
/nolist
etcon,set             ! allow ANSYS to choose best KEYOP's for 180x elements
/com,*********** Nodes for the whole assembly ***********
nblock,3,,799
(1i9,3e20.9e3)
        1    -8.000000000E-02    -4.000000000E-02     0.000000000E+00
        2    -8.000000000E-02     4.000000000E-02     0.000000000E+00
        3    -8.000000000E-02    -4.000000000E-02     2.000000000E+00
        4    -8.000000000E-02    -4.000000000E-02     1.600000000E+00
        5    -8.000000000E-02    -4.000000000E-02     1.200000000E+00
        6    -8.000000000E-02    -4.000000000E-02     7.902350879E-01
        7    -8.000000000E-02    -4.000000000E-02     3.992090204E-01
        8    -8.000000000E-02     4.000000000E-02     2.000000000E+00
        9    -8.000000000E-02     4.000000000E-02     1.600000000E+00
       10    -8.000000000E-02     4.000000000E-02     1.200000000E+00
       11    -8.000000000E-02     4.000000000E-02     8.177737473E-01
       12    -8.000000000E-02     4.000000000E-02     4.588800000E-01
       13     8.000000000E-02     4.000000000E-02     0.000000000E+00
       14     8.000000000E-02     4.000000000E-02     2.000000000E+00
       15     8.000000000E-02     4.000000000E-02     1.600000000E+00
       16     8.000000000E-02     4.000000000E-02     1.175037559E+00
       17     8.000000000E-02     4.000000000E-02     8.000000000E-01
       18     8.000000000E-02     4.000000000E-02     4.000000000E-01
       19     8.000000000E-02    -4.000000000E-02     0.000000000E+00
       20     8.000000000E-02    -4.000000000E-02     2.000000000E+00
! ... 708 like lines cut
/com,*********** Nodes for all Remote Points ***********
nblock,3
(1i9,3e20.9e3)
   409146     0.000000000E+00     0.000000000E+00     2.000000000E+00
-1
/wb,elem,start            !  set before creation of elements
/com,*********** Elements for Body 1 "Solid" ***********
et,1,187
eblock,19,solid,,328
(19i9)
        1        1        1        1        0        0        0        0       10        0        1       63      121      114       72      551      719      550      545
      592      591
        1        1        1        1        0        0        0        0       10        0        2       55       98       62       63      501      542      496      497
      549      537
        1        1        1        1        0        0        0        0       10        0        3       61       68      103      130      529      573      533      536
      576      697
        1        1        1        1        0        0        0        0       10        0        4       61      103       88      122      533      647      531      534
      695      651
        1        1        1        1        0        0        0        0       10        0        5       56       83       98      125      504      631      505      506
      635      683
        1        1        1        1        0        0        0        0       10        0        6       19      124       88       37      281      652      280      278
      409      404
        1        1        1        1        0        0        0        0       10        0        7       81       88      119      131      625      650      626      627
      653      723
        1        1        1        1        0        0        0        0       10        0        8       83       98      125      105      631      683      635      632
      681      703
        1        1        1        1        0        0        0        0       10        0        9       63      114       76       72      550      604      547      545
      591      590
        1        1        1        1        0        0        0        0       10        0       10        1       61      123       25      135      535      136      134
      318      322
! ... 637 like lines cut
!Material Id = {297F4702-84BD-4B7D-A000-80D7426A44E3}
/wb,elem,end               !  done creating elements
/com,*********** Send User Defined Coordinate System(s) ***********
local,12,0,0.,0.,2.,0.,0.,0.
csys,0
toffst,273.15,  ! Temperature offset from absolute zero
/com,*********** Set Reference Temperature ***********
tref,22.
/wb,mat,start              !  starting to send materials
/com,*********** Send Materials ***********
MP,EX,1,1000000000,	! Pa
MP,NUXY,1,0.3,

/wb,mat,end                !  done sending materials
!************************* Model Summary ********************
!Solid,	my,	matid,	1
!************************* End Model Summary ********************
! get the diagonal of the bounding box. Needed later for other things
*get,_xmin,node,,mnloc,x
*get,_ymin,node,,mnloc,y
*get,_zmin,node,,mnloc,z
*get,_xmax,node,,mxloc,x
*get,_ymax,node,,mxloc,y
*get,_zmax,node,,mxloc,z
_ASMDIAG=(_xmax-_xmin)*(_xmax-_xmin)+(_ymax-_ymin)*(_ymax-_ymin)+(_zmax-_zmin)*(_zmax-_zmin)
_ASMDIAG=SQRT(_ASMDIAG)
/wb,contact,start          !  starting to send contact
/wb,contact,end            !  done creating contacts
/golist
/wb,load,start             !  starting to send loads
/com,*********** Fixed Supports ***********
CMBLOCK,_FIXEDSU,NODE,       66
(8i10)
         1         2        13        19        25        26        37        43
        53        54        69        70        71        89       104       111
       120       122       123       124       130       131       134       136
       137       138       140       141       230       231       232       278
       279       281       319       321       322       323       325       326
       328       329       403       405       407       409       410       443
       444       446       448       490       492       494       577       578
       582       585       587       656       699       700       701       715
       724       725
cmsel,s,_FIXEDSU
d,all,all
nsel,all
/com,*********** Create Remote Point "Remote Point" ***********
*set,tid,3
*set,cid,2
et,cid,174
et,tid,170
keyo,tid,2,1               ! Don't fix the pilot node
keyo,tid,4,0               ! Activate all DOF's due to large deformation
keyo,cid,12,5              ! Bonded Contact 
keyo,cid,4,1               ! Deformable RBE3 style load
keyo,cid,2,2               ! MPC style contact
eblock,10,,,24
(15i9)
   142790        2        2        2        0       14       73       44       44      236      450       44      234
   142791        2        2        2        0       27      121       74       74      336      596       74      332
   142792        2        2        2        0       51      112      129      129      484      717      129      486
   142793        2        2        2        0       72      121       73       73      592      595       73      588
   142794        2        2        2        0       72       74      121      121      589      596      121      592
   142795        2        2        2        0        3       32       49       49      142      369       49      143
   142796        2        2        2        0        3      126       32       32      145      374       32      142
   142797        2        2        2        0       44       73      121      121      450      595      121      454
   142798        2        2        2        0       38      105      127      127      413      705      127      417
   142799        2        2        2        0       14       44       51       51      234      449       51      235
   142800        2        2        2        0       32      126      105      105      374      704      105      373
   142801        2        2        2        0        8       50       27       27      187      330       27      186
   142802        2        2        2        0        8       27       74       74      186      332       74      189
   142803        2        2        2        0      129       38       52       52      418      411       52      488
   142804        2        2        2        0       44      112       51       51      452      484       51      449
   142805        2        2        2        0       32      128       49       49      375      480       49      369
   142806        2        2        2        0       96       27      128      128      334      337      128      678
   142807        2        2        2        0      128       27       50       50      337      330       50      482
   142808        2        2        2        0      112       38      129      129      415      418      129      717
   142809        2        2        2        0       20       38      127      127      282      417      127      285
! ... 5 like lines cut
*set,_npilot,409146
_npilot31=_npilot
type,tid
mat ,cid
real,cid
tshape,pilo
en,142814,_npilot
tshape
/com,*********** Construct Moment Using Remote Attachment ***********
/gst,on,on
fini
*get,_numnode,node,0,count
*get,_numelem,elem,0,count
*get, _MAXELEMNUM, elem, 0, NUM, MAX
*get, _MAXNODENUM, node, 0, NUM, MAX
*get, _MAXELEMTYPE, etyp, 0, NUM, MAX
*get, _MAXREALCONST, real, 0, NUM, MAX
/go
/wb,load,end               !  done creating loads
/com,--- Number of total nodes = %_numnode%
/com,--- Number of contact elements = 24
/com,--- Number of spring elements = 0
/com,--- Number of bearing elements = 0
/com,--- Number of solid elements = 328
/com,--- Number of condensed parts = 0
/com,--- Number of total elements = %_numelem%
*get,_wallbsol,active,,time,wall
/com,****************************************************************************
/com,*************************    SOLUTION       ********************************
/com,****************************************************************************
/solu
antype,0                   ! static analysis
nlgeom,on                  ! Turn on Large Deformation Effects
_thickRatio=  0     ! Ratio of thick parts in the model
eqsl,sparse,,,,,1
cntr,print,1               ! print out contact info and also make no initial contact an error
nldiag,cont,iter           ! print out contact info each equilibrium iteration
rescontrol,define,last,last,,dele	   ! Program Controlled
/com,****************************************************
/com,******************* SOLVE FOR LS 1 OF 100 ****************
nsel,s,node,,409146
f,all,mx,0.
f,all,my,0.
f,all,mz,1000.
nsel,all
/nopr
/gopr
autots,on                  ! Workbench Program Controlled automatic time stepping
nsub,1,10,1                ! due to presence of general nonlinear
time,1.
outres,erase
outres,all,none
outres,nsol,all,
outres,rsol,all
outres,eangl,all
outres,etmp,all
outres,veng,all
outres,strs,all,
outres,epel,all,
outres,eppl,all,
outres,cont,all,
! *********** WB SOLVE COMMAND ***********
! check interactive state
*get,ANSINTER_,active,,int
*if,ANSINTER_,ne,0,then
/eof
*endif
solve
/com *************** Write FE CONNECTORS ********* 
CEWRITE,file,ce,,INTE
/com,****************************************************
/com,*************** FINISHED SOLVE FOR LS 1 *************
/com,****************************************************
/com,******************* SOLVE FOR LS 2 OF 100 ****************
/nopr
/gopr
autots,on                  ! Workbench Program Controlled automatic time stepping
nsub,1,10,1                ! due to presence of general nonlinear
time,2.
outres,erase
outres,all,none
outres,nsol,all,
outres,rsol,all
outres,eangl,all
outres,etmp,all
outres,veng,all
outres,strs,all,
outres,epel,all,
outres,eppl,all,
outres,cont,all,
solve
/com,****************************************************
/com,*************** FINISHED SOLVE FOR LS 2 *************
/com,****************************************************
/com,******************* SOLVE FOR LS 3 OF 100 ****************
/nopr
/gopr
autots,on                  ! Workbench Program Controlled automatic time stepping
nsub,1,10,1                ! due to presence of general nonlinear
time,3.
outres,erase
outres,all,none
outres,nsol,all,
outres,rsol,all
outres,eangl,all
outres,etmp,all
outres,veng,all
outres,strs,all,
outres,epel,all,
outres,eppl,all,
outres,cont,all,
solve
/com,****************************************************
/com,*************** FINISHED SOLVE FOR LS 3 *************
/com,****************************************************
/com,******************* SOLVE FOR LS 4 OF 100 ****************
/nopr
/gopr
autots,on                  ! Workbench Program Controlled automatic time stepping
nsub,1,10,1                ! due to presence of general nonlinear
time,4.
outres,erase
outres,all,none
outres,nsol,all,
outres,rsol,all
outres,eangl,all
outres,etmp,all
outres,veng,all
outres,strs,all,
outres,epel,all,
outres,eppl,all,
outres,cont,all,
solve
/com,****************************************************
/com,*************** FINISHED SOLVE FOR LS 4 *************
/com,****************************************************
/com,******************* SOLVE FOR LS 5 OF 100 ****************
/nopr
/gopr
autots,on                  ! Workbench Program Controlled automatic time stepping
nsub,1,10,1                ! due to presence of general nonlinear
time,5.
outres,erase
outres,all,none
outres,nsol,all,
outres,rsol,all
outres,eangl,all
outres,etmp,all
outres,veng,all
outres,strs,all,
outres,epel,all,
outres,eppl,all,
outres,cont,all,
solve
/com,****************************************************
/com,*************** FINISHED SOLVE FOR LS 5 *************
/com,****************************************************
/com,******************* SOLVE FOR LS 6 OF 100 ****************
/nopr
/gopr
autots,on                  ! Workbench Program Controlled automatic time stepping
nsub,1,10,1                ! due to presence of general nonlinear
time,6.
outres,erase
outres,all,none
outres,nsol,all,
outres,rsol,all
outres,eangl,all
outres,etmp,all
outres,veng,all
outres,strs,all,
outres,epel,all,
outres,eppl,all,
outres,cont,all,
solve
/com,****************************************************
/com,*************** FINISHED SOLVE FOR LS 6 *************
/com,****************************************************
/com,******************* SOLVE FOR LS 7 OF 100 ****************
/nopr
/gopr
autots,on                  ! Workbench Program Controlled automatic time stepping
nsub,1,10,1                ! due to presence of general nonlinear
time,7.
outres,erase
outres,all,none
outres,nsol,all,
outres,rsol,all
outres,eangl,all
outres,etmp,all
outres,veng,all
outres,strs,all,
outres,epel,all,
outres,eppl,all,
outres,cont,all,
solve
/com,****************************************************
/com,*************** FINISHED SOLVE FOR LS 7 *************
/com,****************************************************
/com,******************* SOLVE FOR LS 8 OF 100 ****************
/nopr
/gopr
autots,on                  ! Workbench Program Controlled automatic time stepping
nsub,1,10,1                ! due to presence of general nonlinear
time,8.
outres,erase
outres,all,none
outres,nsol,all,
outres,rsol,all
outres,eangl,all
outres,etmp,all
outres,veng,all
outres,strs,all,
outres,epel,all,
outres,eppl,all,
outres,cont,all,
solve
/com,****************************************************
/com,*************** FINISHED SOLVE FOR LS 8 *************
/com,****************************************************
/com,******************* SOLVE FOR LS 9 OF 100 ****************
/nopr
/gopr
autots,on                  ! Workbench Program Controlled automatic time stepping
nsub,1,10,1                ! due to presence of general nonlinear
time,9.
outres,erase
outres,all,none
outres,nsol,all,
outres,rsol,all
outres,eangl,all
outres,etmp,all
outres,veng,all
outres,strs,all,
outres,epel,all,
outres,eppl,all,
outres,cont,all,
solve
/com,****************************************************
/com,*************** FINISHED SOLVE FOR LS 9 *************
/com,****************************************************
/com,******************* SOLVE FOR LS 10 OF 100 ****************
/nopr
/gopr
autots,on                  ! Workbench Program Controlled automatic time stepping
nsub,1,10,1                ! due to presence of general nonlinear
time,10.
outres,erase
outres,all,none
outres,nsol,all,
outres,rsol,all
outres,eangl,all
outres,etmp,all
outres,veng,all
outres,strs,all,
outres,epel,all,
outres,eppl,all,
outres,cont,all,
solve
/com,****************************************************
/com,*************** FINISHED SOLVE FOR LS 10 *************
/com,****************************************************
/com,******************* SOLVE FOR LS 11 OF 100 ****************
/nopr
/gopr
autots,on                  ! Workbench Program Controlled automatic time stepping
nsub,1,10,1                ! due to presence of general nonlinear
time,11.
outres,erase
outres,all,none
outres,nsol,all,
outres,rsol,all
outres,eangl,all
outres,etmp,all
outres,veng,all
outres,strs,all,
outres,epel,all,
outres,eppl,all,
outres,cont,all,
solve
/com,****************************************************
/com,*************** FINISHED SOLVE FOR LS 11 *************
/com,****************************************************
/com,******************* SOLVE FOR LS 12 OF 100 ****************
/nopr
/gopr
autots,on                  ! Workbench Program Controlled automatic time stepping
nsub,1,10,1                ! due to presence of general nonlinear
time,12.
outres,erase
outres,all,none
outres,nsol,all,
outres,rsol,all
outres,eangl,all
outres,etmp,all
outres,veng,all
outres,strs,all,
outres,epel,all,
outres,eppl,all,
outres,cont,all,
solve
/com,****************************************************
/com,*************** FINISHED SOLVE FOR LS 12 *************
/com,****************************************************
/com,******************* SOLVE FOR LS 13 OF 100 ****************
/nopr
/gopr
autots,on                  ! Workbench Program Controlled automatic time stepping
nsub,1,10,1                ! due to presence of general nonlinear
time,13.
outres,erase
outres,all,none
outres,nsol,all,
outres,rsol,all
outres,eangl,all
outres,etmp,all
outres,veng,all
outres,strs,all,
outres,epel,all,
outres,eppl,all,
outres,cont,all,
solve
/com,****************************************************
/com,*************** FINISHED SOLVE FOR LS 13 *************
/com,****************************************************
/com,******************* SOLVE FOR LS 14 OF 100 ****************
/nopr
/gopr
autots,on                  ! Workbench Program Controlled automatic time stepping
nsub,1,10,1                ! due to presence of general nonlinear
time,14.
outres,erase
outres,all,none
outres,nsol,all,
outres,rsol,all
outres,eangl,all
outres,etmp,all
outres,veng,all
outres,strs,all,
outres,epel,all,
outres,eppl,all,
outres,cont,all,
solve
/com,****************************************************
/com,*************** FINISHED SOLVE FOR LS 14 *************
/com,****************************************************
/com,******************* SOLVE FOR LS 15 OF 100 ****************
/nopr
/gopr
autots,on                  ! Workbench Program Controlled automatic time stepping
nsub,1,10,1                ! due to presence of general nonlinear
time,15.
outres,erase
outres,all,none
outres,nsol,all,
outres,rsol,all
outres,eangl,all
outres,etmp,all
outres,veng,all
outres,strs,all,
outres,epel,all,
outres,eppl,all,
outres,cont,all,
solve
/com,****************************************************
/com,*************** FINISHED SOLVE FOR LS 15 *************
/com,****************************************************
/com,******************* SOLVE FOR LS 16 OF 100 ****************
/nopr
/gopr
autots,on                  ! Workbench Program Controlled automatic time stepping
nsub,1,10,1                ! due to presence of general nonlinear
time,16.
outres,erase
outres,all,none
outres,nsol,all,
outres,rsol,all
outres,eangl,all
outres,etmp,all
outres,veng,all
outres,strs,all,
outres,epel,all,
outres,eppl,all,
outres,cont,all,
solve
/com,****************************************************
/com,*************** FINISHED SOLVE FOR LS 16 *************
/com,****************************************************
/com,******************* SOLVE FOR LS 17 OF 100 ****************
/nopr
/gopr
autots,on                  ! Workbench Program Controlled automatic time stepping
nsub,1,10,1                ! due to presence of general nonlinear
time,17.
outres,erase
outres,all,none
outres,nsol,all,
outres,rsol,all
outres,eangl,all
outres,etmp,all
outres,veng,all
outres,strs,all,
outres,epel,all,
outres,eppl,all,
outres,cont,all,
solve
/com,****************************************************
/com,*************** FINISHED SOLVE FOR LS 17 *************
/com,****************************************************
/com,******************* SOLVE FOR LS 18 OF 100 ****************
/nopr
/gopr
autots,on                  ! Workbench Program Controlled automatic time stepping
nsub,1,10,1                ! due to presence of general nonlinear
time,18.
outres,erase
outres,all,none
outres,nsol,all,
outres,rsol,all
outres,eangl,all
outres,etmp,all
outres,veng,all
outres,strs,all,
outres,epel,all,
outres,eppl,all,
outres,cont,all,
solve
/com,****************************************************
/com,*************** FINISHED SOLVE FOR LS 18 *************
/com,****************************************************
/com,******************* SOLVE FOR LS 19 OF 100 ****************
/nopr
/gopr
autots,on                  ! Workbench Program Controlled automatic time stepping
nsub,1,10,1                ! due to presence of general nonlinear
time,19.
outres,erase
outres,all,none
outres,nsol,all,
outres,rsol,all
outres,eangl,all
outres,etmp,all
outres,veng,all
outres,strs,all,
outres,epel,all,
outres,eppl,all,
outres,cont,all,
solve
/com,****************************************************
/com,*************** FINISHED SOLVE FOR LS 19 *************
/com,****************************************************
/com,******************* SOLVE FOR LS 20 OF 100 ****************
/nopr
/gopr
autots,on                  ! Workbench Program Controlled automatic time stepping
nsub,1,10,1                ! due to presence of general nonlinear
time,20.
outres,erase
outres,all,none
outres,nsol,all,
outres,rsol,all
outres,eangl,all
outres,etmp,all
outres,veng,all
outres,strs,all,
outres,epel,all,
outres,eppl,all,
outres,cont,all,
solve
/com,****************************************************
/com,*************** FINISHED SOLVE FOR LS 20 *************
/com,****************************************************
/com,******************* SOLVE FOR LS 21 OF 100 ****************
/nopr
/gopr
autots,on                  ! Workbench Program Controlled automatic time stepping
nsub,1,10,1                ! due to presence of general nonlinear
time,21.
outres,erase
outres,all,none
outres,nsol,all,
outres,rsol,all
outres,eangl,all
outres,etmp,all
outres,veng,all
outres,strs,all,
outres,epel,all,
outres,eppl,all,
outres,cont,all,
solve
/com,****************************************************
/com,*************** FINISHED SOLVE FOR LS 21 *************
/com,****************************************************
/com,******************* SOLVE FOR LS 22 OF 100 ****************
/nopr
/gopr
autots,on                  ! Workbench Program Controlled automatic time stepping
nsub,1,10,1                ! due to presence of general nonlinear
time,22.
outres,erase
outres,all,none
outres,nsol,all,
outres,rsol,all
outres,eangl,all
outres,etmp,all
outres,veng,all
outres,strs,all,
outres,epel,all,
outres,eppl,all,
outres,cont,all,
solve
/com,****************************************************
/com,*************** FINISHED SOLVE FOR LS 22 *************
/com,****************************************************
/com,******************* SOLVE FOR LS 23 OF 100 ****************
/nopr
/gopr
autots,on                  ! Workbench Program Controlled automatic time stepping
nsub,1,10,1                ! due to presence of general nonlinear
time,23.
outres,erase
outres,all,none
outres,nsol,all,
outres,rsol,all
outres,eangl,all
outres,etmp,all
outres,veng,all
outres,strs,all,
outres,epel,all,
outres,eppl,all,
outres,cont,all,
solve
/com,****************************************************
/com,*************** FINISHED SOLVE FOR LS 23 *************
/com,****************************************************
/com,******************* SOLVE FOR LS 24 OF 100 ****************
/nopr
/gopr
autots,on                  ! Workbench Program Controlled automatic time stepping
nsub,1,10,1                ! due to presence of general nonlinear
time,24.
outres,erase
outres,all,none
outres,nsol,all,
outres,rsol,all
outres,eangl,all
outres,etmp,all
outres,veng,all
outres,strs,all,
outres,epel,all,
outres,eppl,all,
outres,cont,all,
solve
/com,****************************************************
/com,*************** FINISHED SOLVE FOR LS 24 *************
/com,****************************************************
/com,******************* SOLVE FOR LS 25 OF 100 ****************
/nopr
/gopr
autots,on                  ! Workbench Program Controlled automatic time stepping
nsub,1,10,1                ! due to presence of general nonlinear
time,25.
outres,erase
outres,all,none
outres,nsol,all,
outres,rsol,all
outres,eangl,all
outres,etmp,all
outres,veng,all
outres,strs,all,
outres,epel,all,
outres,eppl,all,
outres,cont,all,
solve
/com,****************************************************
/com,*************** FINISHED SOLVE FOR LS 25 *************
/com,****************************************************
/com,******************* SOLVE FOR LS 26 OF 100 ****************
/nopr
/gopr
autots,on                  ! Workbench Program Controlled automatic time stepping
nsub,1,10,1                ! due to presence of general nonlinear
time,26.
outres,erase
outres,all,none
outres,nsol,all,
outres,rsol,all
outres,eangl,all
outres,etmp,all
outres,veng,all
outres,strs,all,
outres,epel,all,
outres,eppl,all,
outres,cont,all,
solve
/com,****************************************************
/com,*************** FINISHED SOLVE FOR LS 26 *************
/com,****************************************************
/com,******************* SOLVE FOR LS 27 OF 100 ****************
/nopr
/gopr
autots,on                  ! Workbench Program Controlled automatic time stepping
nsub,1,10,1                ! due to presence of general nonlinear
time,27.
outres,erase
outres,all,none
outres,nsol,all,
outres,rsol,all
outres,eangl,all
outres,etmp,all
outres,veng,all
outres,strs,all,
outres,epel,all,
outres,eppl,all,
outres,cont,all,
solve
/com,****************************************************
/com,*************** FINISHED SOLVE FOR LS 27 *************
/com,****************************************************
/com,******************* SOLVE FOR LS 28 OF 100 ****************
/nopr
/gopr
autots,on                  ! Workbench Program Controlled automatic time stepping
nsub,1,10,1                ! due to presence of general nonlinear
time,28.
outres,erase
outres,all,none
outres,nsol,all,
outres,rsol,all
outres,eangl,all
outres,etmp,all
outres,veng,all
outres,strs,all,
outres,epel,all,
outres,eppl,all,
outres,cont,all,
solve
/com,****************************************************
/com,*************** FINISHED SOLVE FOR LS 28 *************
/com,****************************************************
/com,******************* SOLVE FOR LS 29 OF 100 ****************
/nopr
/gopr
autots,on                  ! Workbench Program Controlled automatic time stepping
nsub,1,10,1                ! due to presence of general nonlinear
time,29.
outres,erase
outres,all,none
outres,nsol,all,
outres,rsol,all
outres,eangl,all
outres,etmp,all
outres,veng,all
outres,strs,all,
outres,epel,all,
outres,eppl,all,
outres,cont,all,
solve
/com,****************************************************
/com,*************** FINISHED SOLVE FOR LS 29 *************
/com,****************************************************
/com,******************* SOLVE FOR LS 30 OF 100 ****************
/nopr
/gopr
autots,on                  ! Workbench Program Controlled automatic time stepping
nsub,1,10,1                ! due to presence of general nonlinear
time,30.
outres,erase
outres,all,none
outres,nsol,all,
outres,rsol,all
outres,eangl,all
outres,etmp,all
outres,veng,all
outres,strs,all,
outres,epel,all,
outres,eppl,all,
outres,cont,all,
solve
/com,****************************************************
/com,*************** FINISHED SOLVE FOR LS 30 *************
/com,****************************************************
/com,******************* SOLVE FOR LS 31 OF 100 ****************
/nopr
/gopr
autots,on                  ! Workbench Program Controlled automatic time stepping
nsub,1,10,1                ! due to presence of general nonlinear
time,31.
outres,erase
outres,all,none
outres,nsol,all,
outres,rsol,all
outres,eangl,all
outres,etmp,all
outres,veng,all
outres,strs,all,
outres,epel,all,
outres,eppl,all,
outres,cont,all,
solve
/com,****************************************************
/com,*************** FINISHED SOLVE FOR LS 31 *************
/com,****************************************************
/com,******************* SOLVE FOR LS 32 OF 100 ****************
/nopr
/gopr
autots,on                  ! Workbench Program Controlled automatic time stepping
nsub,1,10,1                ! due to presence of general nonlinear
time,32.
outres,erase
outres,all,none
outres,nsol,all,
outres,rsol,all
outres,eangl,all
outres,etmp,all
outres,veng,all
outres,strs,all,
outres,epel,all,
outres,eppl,all,
outres,cont,all,
solve
/com,****************************************************
/com,*************** FINISHED SOLVE FOR LS 32 *************
/com,****************************************************
/com,******************* SOLVE FOR LS 33 OF 100 ****************
/nopr
/gopr
autots,on                  ! Workbench Program Controlled automatic time stepping
nsub,1,10,1                ! due to presence of general nonlinear
time,33.
outres,erase
outres,all,none
outres,nsol,all,
outres,rsol,all
outres,eangl,all
outres,etmp,all
outres,veng,all
outres,strs,all,
outres,epel,all,
outres,eppl,all,
outres,cont,all,
solve
/com,****************************************************
/com,*************** FINISHED SOLVE FOR LS 33 *************
/com,****************************************************
/com,******************* SOLVE FOR LS 34 OF 100 ****************
/nopr
/gopr
autots,on                  ! Workbench Program Controlled automatic time stepping
nsub,1,10,1                ! due to presence of general nonlinear
time,34.
outres,erase
outres,all,none
outres,nsol,all,
outres,rsol,all
outres,eangl,all
outres,etmp,all
outres,veng,all
outres,strs,all,
outres,epel,all,
outres,eppl,all,
outres,cont,all,
solve
/com,****************************************************
/com,*************** FINISHED SOLVE FOR LS 34 *************
/com,****************************************************
/com,******************* SOLVE FOR LS 35 OF 100 ****************
/nopr
/gopr
autots,on                  ! Workbench Program Controlled automatic time stepping
nsub,1,10,1                ! due to presence of general nonlinear
time,35.
outres,erase
outres,all,none
outres,nsol,all,
outres,rsol,all
outres,eangl,all
outres,etmp,all
outres,veng,all
outres,strs,all,
outres,epel,all,
outres,eppl,all,
outres,cont,all,
solve
/com,****************************************************
/com,*************** FINISHED SOLVE FOR LS 35 *************
/com,****************************************************
/com,******************* SOLVE FOR LS 36 OF 100 ****************
/nopr
/gopr
autots,on                  ! Workbench Program Controlled automatic time stepping
nsub,1,10,1                ! due to presence of general nonlinear
time,36.
outres,erase
outres,all,none
outres,nsol,all,
outres,rsol,all
outres,eangl,all
outres,etmp,all
outres,veng,all
outres,strs,all,
outres,epel,all,
outres,eppl,all,
outres,cont,all,
solve
/com,****************************************************
/com,*************** FINISHED SOLVE FOR LS 36 *************
/com,****************************************************
/com,******************* SOLVE FOR LS 37 OF 100 ****************
/nopr
/gopr
autots,on                  ! Workbench Program Controlled automatic time stepping
nsub,1,10,1                ! due to presence of general nonlinear
time,37.
outres,erase
outres,all,none
outres,nsol,all,
outres,rsol,all
outres,eangl,all
outres,etmp,all
outres,veng,all
outres,strs,all,
outres,epel,all,
outres,eppl,all,
outres,cont,all,
solve
/com,****************************************************
/com,*************** FINISHED SOLVE FOR LS 37 *************
/com,****************************************************
/com,******************* SOLVE FOR LS 38 OF 100 ****************
/nopr
/gopr
autots,on                  ! Workbench Program Controlled automatic time stepping
nsub,1,10,1                ! due to presence of general nonlinear
time,38.
outres,erase
outres,all,none
outres,nsol,all,
outres,rsol,all
outres,eangl,all
outres,etmp,all
outres,veng,all
outres,strs,all,
outres,epel,all,
outres,eppl,all,
outres,cont,all,
solve
/com,****************************************************
/com,*************** FINISHED SOLVE FOR LS 38 *************
/com,****************************************************
/com,******************* SOLVE FOR LS 39 OF 100 ****************
/nopr
/gopr
autots,on                  ! Workbench Program Controlled automatic time stepping
nsub,1,10,1                ! due to presence of general nonlinear
time,39.
outres,erase
outres,all,none
outres,nsol,all,
outres,rsol,all
outres,eangl,all
outres,etmp,all
outres,veng,all
outres,strs,all,
outres,epel,all,
outres,eppl,all,
outres,cont,all,
solve
/com,****************************************************
/com,*************** FINISHED SOLVE FOR LS 39 *************
/com,****************************************************
/com,******************* SOLVE FOR LS 40 OF 100 ****************
/nopr
/gopr
autots,on                  ! Workbench Program Controlled automatic time stepping
nsub,1,10,1                ! due to presence of general nonlinear
time,40.
outres,erase
outres,all,none
outres,nsol,all,
outres,rsol,all
outres,eangl,all
outres,etmp,all
outres,veng,all
outres,strs,all,
outres,epel,all,
outres,eppl,all,
outres,cont,all,
solve
/com,****************************************************
/com,*************** FINISHED SOLVE FOR LS 40 *************
/com,****************************************************
/com,******************* SOLVE FOR LS 41 OF 100 ****************
/nopr
/gopr
autots,on                  ! Workbench Program Controlled automatic time stepping
nsub,1,10,1                ! due to presence of general nonlinear
time,41.
outres,erase
outres,all,none
outres,nsol,all,
outres,rsol,all
outres,eangl,all
outres,etmp,all
outres,veng,all
outres,strs,all,
outres,epel,all,
outres,eppl,all,
outres,cont,all,
solve
/com,****************************************************
/com,*************** FINISHED SOLVE FOR LS 41 *************
/com,****************************************************
/com,******************* SOLVE FOR LS 42 OF 100 ****************
/nopr
/gopr
autots,on                  ! Workbench Program Controlled automatic time stepping
nsub,1,10,1                ! due to presence of general nonlinear
time,42.
outres,erase
outres,all,none
outres,nsol,all,
outres,rsol,all
outres,eangl,all
outres,etmp,all
outres,veng,all
outres,strs,all,
outres,epel,all,
outres,eppl,all,
outres,cont,all,
solve
/com,****************************************************
/com,*************** FINISHED SOLVE FOR LS 42 *************
/com,****************************************************
/com,******************* SOLVE FOR LS 43 OF 100 ****************
/nopr
/gopr
autots,on                  ! Workbench Program Controlled automatic time stepping
nsub,1,10,1                ! due to presence of general nonlinear
time,43.
outres,erase
outres,all,none
outres,nsol,all,
outres,rsol,all
outres,eangl,all
outres,etmp,all
outres,veng,all
outres,strs,all,
outres,epel,all,
outres,eppl,all,
outres,cont,all,
solve
/com,****************************************************
/com,*************** FINISHED SOLVE FOR LS 43 *************
/com,****************************************************
/com,******************* SOLVE FOR LS 44 OF 100 ****************
/nopr
/gopr
autots,on                  ! Workbench Program Controlled automatic time stepping
nsub,1,10,1                ! due to presence of general nonlinear
time,44.
outres,erase
outres,all,none
outres,nsol,all,
outres,rsol,all
outres,eangl,all
outres,etmp,all
outres,veng,all
outres,strs,all,
outres,epel,all,
outres,eppl,all,
outres,cont,all,
solve
/com,****************************************************
/com,*************** FINISHED SOLVE FOR LS 44 *************
/com,****************************************************
/com,******************* SOLVE FOR LS 45 OF 100 ****************
/nopr
/gopr
autots,on                  ! Workbench Program Controlled automatic time stepping
nsub,1,10,1                ! due to presence of general nonlinear
time,45.
outres,erase
outres,all,none
outres,nsol,all,
outres,rsol,all
outres,eangl,all
outres,etmp,all
outres,veng,all
outres,strs,all,
outres,epel,all,
outres,eppl,all,
outres,cont,all,
solve
/com,****************************************************
/com,*************** FINISHED SOLVE FOR LS 45 *************
/com,****************************************************
/com,******************* SOLVE FOR LS 46 OF 100 ****************
/nopr
/gopr
autots,on                  ! Workbench Program Controlled automatic time stepping
nsub,1,10,1                ! due to presence of general nonlinear
time,46.
outres,erase
outres,all,none
outres,nsol,all,
outres,rsol,all
outres,eangl,all
outres,etmp,all
outres,veng,all
outres,strs,all,
outres,epel,all,
outres,eppl,all,
outres,cont,all,
solve
/com,****************************************************
/com,*************** FINISHED SOLVE FOR LS 46 *************
/com,****************************************************
/com,******************* SOLVE FOR LS 47 OF 100 ****************
/nopr
/gopr
autots,on                  ! Workbench Program Controlled automatic time stepping
nsub,1,10,1                ! due to presence of general nonlinear
time,47.
outres,erase
outres,all,none
outres,nsol,all,
outres,rsol,all
outres,eangl,all
outres,etmp,all
outres,veng,all
outres,strs,all,
outres,epel,all,
outres,eppl,all,
outres,cont,all,
solve
/com,****************************************************
/com,*************** FINISHED SOLVE FOR LS 47 *************
/com,****************************************************
/com,******************* SOLVE FOR LS 48 OF 100 ****************
/nopr
/gopr
autots,on                  ! Workbench Program Controlled automatic time stepping
nsub,1,10,1                ! due to presence of general nonlinear
time,48.
outres,erase
outres,all,none
outres,nsol,all,
outres,rsol,all
outres,eangl,all
outres,etmp,all
outres,veng,all
outres,strs,all,
outres,epel,all,
outres,eppl,all,
outres,cont,all,
solve
/com,****************************************************
/com,*************** FINISHED SOLVE FOR LS 48 *************
/com,****************************************************
/com,******************* SOLVE FOR LS 49 OF 100 ****************
/nopr
/gopr
autots,on                  ! Workbench Program Controlled automatic time stepping
nsub,1,10,1                ! due to presence of general nonlinear
time,49.
outres,erase
outres,all,none
outres,nsol,all,
outres,rsol,all
outres,eangl,all
outres,etmp,all
outres,veng,all
outres,strs,all,
outres,epel,all,
outres,eppl,all,
outres,cont,all,
solve
/com,****************************************************
/com,*************** FINISHED SOLVE FOR LS 49 *************
/com,****************************************************
/com,******************* SOLVE FOR LS 50 OF 100 ****************
/nopr
/gopr
autots,on                  ! Workbench Program Controlled automatic time stepping
nsub,1,10,1                ! due to presence of general nonlinear
time,50.
outres,erase
outres,all,none
outres,nsol,all,
outres,rsol,all
outres,eangl,all
outres,etmp,all
outres,veng,all
outres,strs,all,
outres,epel,all,
outres,eppl,all,
outres,cont,all,
solve
/com,****************************************************
/com,*************** FINISHED SOLVE FOR LS 50 *************
/com,****************************************************
/com,******************* SOLVE FOR LS 51 OF 100 ****************
/nopr
/gopr
autots,on                  ! Workbench Program Controlled automatic time stepping
nsub,1,10,1                ! due to presence of general nonlinear
time,51.
outres,erase
outres,all,none
outres,nsol,all,
outres,rsol,all
outres,eangl,all
outres,etmp,all
outres,veng,all
outres,strs,all,
outres,epel,all,
outres,eppl,all,
outres,cont,all,
solve
/com,****************************************************
/com,*************** FINISHED SOLVE FOR LS 51 *************
/com,****************************************************
/com,******************* SOLVE FOR LS 52 OF 100 ****************
/nopr
/gopr
autots,on                  ! Workbench Program Controlled automatic time stepping
nsub,1,10,1                ! due to presence of general nonlinear
time,52.
outres,erase
outres,all,none
outres,nsol,all,
outres,rsol,all
outres,eangl,all
outres,etmp,all
outres,veng,all
outres,strs,all,
outres,epel,all,
outres,eppl,all,
outres,cont,all,
solve
/com,****************************************************
/com,*************** FINISHED SOLVE FOR LS 52 *************
/com,****************************************************
/com,******************* SOLVE FOR LS 53 OF 100 ****************
/nopr
/gopr
autots,on                  ! Workbench Program Controlled automatic time stepping
nsub,1,10,1                ! due to presence of general nonlinear
time,53.
outres,erase
outres,all,none
outres,nsol,all,
outres,rsol,all
outres,eangl,all
outres,etmp,all
outres,veng,all
outres,strs,all,
outres,epel,all,
outres,eppl,all,
outres,cont,all,
solve
/com,****************************************************
/com,*************** FINISHED SOLVE FOR LS 53 *************
/com,****************************************************
/com,******************* SOLVE FOR LS 54 OF 100 ****************
/nopr
/gopr
autots,on                  ! Workbench Program Controlled automatic time stepping
nsub,1,10,1                ! due to presence of general nonlinear
time,54.
outres,erase
outres,all,none
outres,nsol,all,
outres,rsol,all
outres,eangl,all
outres,etmp,all
outres,veng,all
outres,strs,all,
outres,epel,all,
outres,eppl,all,
outres,cont,all,
solve
/com,****************************************************
/com,*************** FINISHED SOLVE FOR LS 54 *************
/com,****************************************************
/com,******************* SOLVE FOR LS 55 OF 100 ****************
/nopr
/gopr
autots,on                  ! Workbench Program Controlled automatic time stepping
nsub,1,10,1                ! due to presence of general nonlinear
time,55.
outres,erase
outres,all,none
outres,nsol,all,
outres,rsol,all
outres,eangl,all
outres,etmp,all
outres,veng,all
outres,strs,all,
outres,epel,all,
outres,eppl,all,
outres,cont,all,
solve
/com,****************************************************
/com,*************** FINISHED SOLVE FOR LS 55 *************
/com,****************************************************
/com,******************* SOLVE FOR LS 56 OF 100 ****************
/nopr
/gopr
autots,on                  ! Workbench Program Controlled automatic time stepping
nsub,1,10,1                ! due to presence of general nonlinear
time,56.
outres,erase
outres,all,none
outres,nsol,all,
outres,rsol,all
outres,eangl,all
outres,etmp,all
outres,veng,all
outres,strs,all,
outres,epel,all,
outres,eppl,all,
outres,cont,all,
solve
/com,****************************************************
/com,*************** FINISHED SOLVE FOR LS 56 *************
/com,****************************************************
/com,******************* SOLVE FOR LS 57 OF 100 ****************
/nopr
/gopr
autots,on                  ! Workbench Program Controlled automatic time stepping
nsub,1,10,1                ! due to presence of general nonlinear
time,57.
outres,erase
outres,all,none
outres,nsol,all,
outres,rsol,all
outres,eangl,all
outres,etmp,all
outres,veng,all
outres,strs,all,
outres,epel,all,
outres,eppl,all,
outres,cont,all,
solve
/com,****************************************************
/com,*************** FINISHED SOLVE FOR LS 57 *************
/com,****************************************************
/com,******************* SOLVE FOR LS 58 OF 100 ****************
/nopr
/gopr
autots,on                  ! Workbench Program Controlled automatic time stepping
nsub,1,10,1                ! due to presence of general nonlinear
time,58.
outres,erase
outres,all,none
outres,nsol,all,
outres,rsol,all
outres,eangl,all
outres,etmp,all
outres,veng,all
outres,strs,all,
outres,epel,all,
outres,eppl,all,
outres,cont,all,
solve
/com,****************************************************
/com,*************** FINISHED SOLVE FOR LS 58 *************
/com,****************************************************
/com,******************* SOLVE FOR LS 59 OF 100 ****************
/nopr
/gopr
autots,on                  ! Workbench Program Controlled automatic time stepping
nsub,1,10,1                ! due to presence of general nonlinear
time,59.
outres,erase
outres,all,none
outres,nsol,all,
outres,rsol,all
outres,eangl,all
outres,etmp,all
outres,veng,all
outres,strs,all,
outres,epel,all,
outres,eppl,all,
outres,cont,all,
solve
/com,****************************************************
/com,*************** FINISHED SOLVE FOR LS 59 *************
/com,****************************************************
/com,******************* SOLVE FOR LS 60 OF 100 ****************
/nopr
/gopr
autots,on                  ! Workbench Program Controlled automatic time stepping
nsub,1,10,1                ! due to presence of general nonlinear
time,60.
outres,erase
outres,all,none
outres,nsol,all,
outres,rsol,all
outres,eangl,all
outres,etmp,all
outres,veng,all
outres,strs,all,
outres,epel,all,
outres,eppl,all,
outres,cont,all,
solve
/com,****************************************************
/com,*************** FINISHED SOLVE FOR LS 60 *************
/com,****************************************************
/com,******************* SOLVE FOR LS 61 OF 100 ****************
/nopr
/gopr
autots,on                  ! Workbench Program Controlled automatic time stepping
nsub,1,10,1                ! due to presence of general nonlinear
time,61.
outres,erase
outres,all,none
outres,nsol,all,
outres,rsol,all
outres,eangl,all
outres,etmp,all
outres,veng,all
outres,strs,all,
outres,epel,all,
outres,eppl,all,
outres,cont,all,
solve
/com,****************************************************
/com,*************** FINISHED SOLVE FOR LS 61 *************
/com,****************************************************
/com,******************* SOLVE FOR LS 62 OF 100 ****************
/nopr
/gopr
autots,on                  ! Workbench Program Controlled automatic time stepping
nsub,1,10,1                ! due to presence of general nonlinear
time,62.
outres,erase
outres,all,none
outres,nsol,all,
outres,rsol,all
outres,eangl,all
outres,etmp,all
outres,veng,all
outres,strs,all,
outres,epel,all,
outres,eppl,all,
outres,cont,all,
solve
/com,****************************************************
/com,*************** FINISHED SOLVE FOR LS 62 *************
/com,****************************************************
/com,******************* SOLVE FOR LS 63 OF 100 ****************
/nopr
/gopr
autots,on                  ! Workbench Program Controlled automatic time stepping
nsub,1,10,1                ! due to presence of general nonlinear
time,63.
outres,erase
outres,all,none
outres,nsol,all,
outres,rsol,all
outres,eangl,all
outres,etmp,all
outres,veng,all
outres,strs,all,
outres,epel,all,
outres,eppl,all,
outres,cont,all,
solve
/com,****************************************************
/com,*************** FINISHED SOLVE FOR LS 63 *************
/com,****************************************************
/com,******************* SOLVE FOR LS 64 OF 100 ****************
/nopr
/gopr
autots,on                  ! Workbench Program Controlled automatic time stepping
nsub,1,10,1                ! due to presence of general nonlinear
time,64.
outres,erase
outres,all,none
outres,nsol,all,
outres,rsol,all
outres,eangl,all
outres,etmp,all
outres,veng,all
outres,strs,all,
outres,epel,all,
outres,eppl,all,
outres,cont,all,
solve
/com,****************************************************
/com,*************** FINISHED SOLVE FOR LS 64 *************
/com,****************************************************
/com,******************* SOLVE FOR LS 65 OF 100 ****************
/nopr
/gopr
autots,on                  ! Workbench Program Controlled automatic time stepping
nsub,1,10,1                ! due to presence of general nonlinear
time,65.
outres,erase
outres,all,none
outres,nsol,all,
outres,rsol,all
outres,eangl,all
outres,etmp,all
outres,veng,all
outres,strs,all,
outres,epel,all,
outres,eppl,all,
outres,cont,all,
solve
/com,****************************************************
/com,*************** FINISHED SOLVE FOR LS 65 *************
/com,****************************************************
/com,******************* SOLVE FOR LS 66 OF 100 ****************
/nopr
/gopr
autots,on                  ! Workbench Program Controlled automatic time stepping
nsub,1,10,1                ! due to presence of general nonlinear
time,66.
outres,erase
outres,all,none
outres,nsol,all,
outres,rsol,all
outres,eangl,all
outres,etmp,all
outres,veng,all
outres,strs,all,
outres,epel,all,
outres,eppl,all,
outres,cont,all,
solve
/com,****************************************************
/com,*************** FINISHED SOLVE FOR LS 66 *************
/com,****************************************************
/com,******************* SOLVE FOR LS 67 OF 100 ****************
/nopr
/gopr
autots,on                  ! Workbench Program Controlled automatic time stepping
nsub,1,10,1                ! due to presence of general nonlinear
time,67.
outres,erase
outres,all,none
outres,nsol,all,
outres,rsol,all
outres,eangl,all
outres,etmp,all
outres,veng,all
outres,strs,all,
outres,epel,all,
outres,eppl,all,
outres,cont,all,
solve
/com,****************************************************
/com,*************** FINISHED SOLVE FOR LS 67 *************
/com,****************************************************
/com,******************* SOLVE FOR LS 68 OF 100 ****************
/nopr
/gopr
autots,on                  ! Workbench Program Controlled automatic time stepping
nsub,1,10,1                ! due to presence of general nonlinear
time,68.
outres,erase
outres,all,none
outres,nsol,all,
outres,rsol,all
outres,eangl,all
outres,etmp,all
outres,veng,all
outres,strs,all,
outres,epel,all,
outres,eppl,all,
outres,cont,all,
solve
/com,****************************************************
/com,*************** FINISHED SOLVE FOR LS 68 *************
/com,****************************************************
/com,******************* SOLVE FOR LS 69 OF 100 ****************
/nopr
/gopr
autots,on                  ! Workbench Program Controlled automatic time stepping
nsub,1,10,1                ! due to presence of general nonlinear
time,69.
outres,erase
outres,all,none
outres,nsol,all,
outres,rsol,all
outres,eangl,all
outres,etmp,all
outres,veng,all
outres,strs,all,
outres,epel,all,
outres,eppl,all,
outres,cont,all,
solve
/com,****************************************************
/com,*************** FINISHED SOLVE FOR LS 69 *************
/com,****************************************************
/com,******************* SOLVE FOR LS 70 OF 100 ****************
/nopr
/gopr
autots,on                  ! Workbench Program Controlled automatic time stepping
nsub,1,10,1                ! due to presence of general nonlinear
time,70.
outres,erase
outres,all,none
outres,nsol,all,
outres,rsol,all
outres,eangl,all
outres,etmp,all
outres,veng,all
outres,strs,all,
outres,epel,all,
outres,eppl,all,
outres,cont,all,
solve
/com,****************************************************
/com,*************** FINISHED SOLVE FOR LS 70 *************
/com,****************************************************
/com,******************* SOLVE FOR LS 71 OF 100 ****************
/nopr
/gopr
autots,on                  ! Workbench Program Controlled automatic time stepping
nsub,1,10,1                ! due to presence of general nonlinear
time,71.
outres,erase
outres,all,none
outres,nsol,all,
outres,rsol,all
outres,eangl,all
outres,etmp,all
outres,veng,all
outres,strs,all,
outres,epel,all,
outres,eppl,all,
outres,cont,all,
solve
/com,****************************************************
/com,*************** FINISHED SOLVE FOR LS 71 *************
/com,****************************************************
/com,******************* SOLVE FOR LS 72 OF 100 ****************
/nopr
/gopr
autots,on                  ! Workbench Program Controlled automatic time stepping
nsub,1,10,1                ! due to presence of general nonlinear
time,72.
outres,erase
outres,all,none
outres,nsol,all,
outres,rsol,all
outres,eangl,all
outres,etmp,all
outres,veng,all
outres,strs,all,
outres,epel,all,
outres,eppl,all,
outres,cont,all,
solve
/com,****************************************************
/com,*************** FINISHED SOLVE FOR LS 72 *************
/com,****************************************************
/com,******************* SOLVE FOR LS 73 OF 100 ****************
/nopr
/gopr
autots,on                  ! Workbench Program Controlled automatic time stepping
nsub,1,10,1                ! due to presence of general nonlinear
time,73.
outres,erase
outres,all,none
outres,nsol,all,
outres,rsol,all
outres,eangl,all
outres,etmp,all
outres,veng,all
outres,strs,all,
outres,epel,all,
outres,eppl,all,
outres,cont,all,
solve
/com,****************************************************
/com,*************** FINISHED SOLVE FOR LS 73 *************
/com,****************************************************
/com,******************* SOLVE FOR LS 74 OF 100 ****************
/nopr
/gopr
autots,on                  ! Workbench Program Controlled automatic time stepping
nsub,1,10,1                ! due to presence of general nonlinear
time,74.
outres,erase
outres,all,none
outres,nsol,all,
outres,rsol,all
outres,eangl,all
outres,etmp,all
outres,veng,all
outres,strs,all,
outres,epel,all,
outres,eppl,all,
outres,cont,all,
solve
/com,****************************************************
/com,*************** FINISHED SOLVE FOR LS 74 *************
/com,****************************************************
/com,******************* SOLVE FOR LS 75 OF 100 ****************
/nopr
/gopr
autots,on                  ! Workbench Program Controlled automatic time stepping
nsub,1,10,1                ! due to presence of general nonlinear
time,75.
outres,erase
outres,all,none
outres,nsol,all,
outres,rsol,all
outres,eangl,all
outres,etmp,all
outres,veng,all
outres,strs,all,
outres,epel,all,
outres,eppl,all,
outres,cont,all,
solve
/com,****************************************************
/com,*************** FINISHED SOLVE FOR LS 75 *************
/com,****************************************************
/com,******************* SOLVE FOR LS 76 OF 100 ****************
/nopr
/gopr
autots,on                  ! Workbench Program Controlled automatic time stepping
nsub,1,10,1                ! due to presence of general nonlinear
time,76.
outres,erase
outres,all,none
outres,nsol,all,
outres,rsol,all
outres,eangl,all
outres,etmp,all
outres,veng,all
outres,strs,all,
outres,epel,all,
outres,eppl,all,
outres,cont,all,
solve
/com,****************************************************
/com,*************** FINISHED SOLVE FOR LS 76 *************
/com,****************************************************
/com,******************* SOLVE FOR LS 77 OF 100 ****************
/nopr
/gopr
autots,on                  ! Workbench Program Controlled automatic time stepping
nsub,1,10,1                ! due to presence of general nonlinear
time,77.
outres,erase
outres,all,none
outres,nsol,all,
outres,rsol,all
outres,eangl,all
outres,etmp,all
outres,veng,all
outres,strs,all,
outres,epel,all,
outres,eppl,all,
outres,cont,all,
solve
/com,****************************************************
/com,*************** FINISHED SOLVE FOR LS 77 *************
/com,****************************************************
/com,******************* SOLVE FOR LS 78 OF 100 ****************
/nopr
/gopr
autots,on                  ! Workbench Program Controlled automatic time stepping
nsub,1,10,1                ! due to presence of general nonlinear
time,78.
outres,erase
outres,all,none
outres,nsol,all,
outres,rsol,all
outres,eangl,all
outres,etmp,all
outres,veng,all
outres,strs,all,
outres,epel,all,
outres,eppl,all,
outres,cont,all,
solve
/com,****************************************************
/com,*************** FINISHED SOLVE FOR LS 78 *************
/com,****************************************************
/com,******************* SOLVE FOR LS 79 OF 100 ****************
/nopr
/gopr
autots,on                  ! Workbench Program Controlled automatic time stepping
nsub,1,10,1                ! due to presence of general nonlinear
time,79.
outres,erase
outres,all,none
outres,nsol,all,
outres,rsol,all
outres,eangl,all
outres,etmp,all
outres,veng,all
outres,strs,all,
outres,epel,all,
outres,eppl,all,
outres,cont,all,
solve
/com,****************************************************
/com,*************** FINISHED SOLVE FOR LS 79 *************
/com,****************************************************
/com,******************* SOLVE FOR LS 80 OF 100 ****************
/nopr
/gopr
autots,on                  ! Workbench Program Controlled automatic time stepping
nsub,1,10,1                ! due to presence of general nonlinear
time,80.
outres,erase
outres,all,none
outres,nsol,all,
outres,rsol,all
outres,eangl,all
outres,etmp,all
outres,veng,all
outres,strs,all,
outres,epel,all,
outres,eppl,all,
outres,cont,all,
solve
/com,****************************************************
/com,*************** FINISHED SOLVE FOR LS 80 *************
/com,****************************************************
/com,******************* SOLVE FOR LS 81 OF 100 ****************
/nopr
/gopr
autots,on                  ! Workbench Program Controlled automatic time stepping
nsub,1,10,1                ! due to presence of general nonlinear
time,81.
outres,erase
outres,all,none
outres,nsol,all,
outres,rsol,all
outres,eangl,all
outres,etmp,all
outres,veng,all
outres,strs,all,
outres,epel,all,
outres,eppl,all,
outres,cont,all,
solve
/com,****************************************************
/com,*************** FINISHED SOLVE FOR LS 81 *************
/com,****************************************************
/com,******************* SOLVE FOR LS 82 OF 100 ****************
/nopr
/gopr
autots,on                  ! Workbench Program Controlled automatic time stepping
nsub,1,10,1                ! due to presence of general nonlinear
time,82.
outres,erase
outres,all,none
outres,nsol,all,
outres,rsol,all
outres,eangl,all
outres,etmp,all
outres,veng,all
outres,strs,all,
outres,epel,all,
outres,eppl,all,
outres,cont,all,
solve
/com,****************************************************
/com,*************** FINISHED SOLVE FOR LS 82 *************
/com,****************************************************
/com,******************* SOLVE FOR LS 83 OF 100 ****************
/nopr
/gopr
autots,on                  ! Workbench Program Controlled automatic time stepping
nsub,1,10,1                ! due to presence of general nonlinear
time,83.
outres,erase
outres,all,none
outres,nsol,all,
outres,rsol,all
outres,eangl,all
outres,etmp,all
outres,veng,all
outres,strs,all,
outres,epel,all,
outres,eppl,all,
outres,cont,all,
solve
/com,****************************************************
/com,*************** FINISHED SOLVE FOR LS 83 *************
/com,****************************************************
/com,******************* SOLVE FOR LS 84 OF 100 ****************
/nopr
/gopr
autots,on                  ! Workbench Program Controlled automatic time stepping
nsub,1,10,1                ! due to presence of general nonlinear
time,84.
outres,erase
outres,all,none
outres,nsol,all,
outres,rsol,all
outres,eangl,all
outres,etmp,all
outres,veng,all
outres,strs,all,
outres,epel,all,
outres,eppl,all,
outres,cont,all,
solve
/com,****************************************************
/com,*************** FINISHED SOLVE FOR LS 84 *************
/com,****************************************************
/com,******************* SOLVE FOR LS 85 OF 100 ****************
/nopr
/gopr
autots,on                  ! Workbench Program Controlled automatic time stepping
nsub,1,10,1                ! due to presence of general nonlinear
time,85.
outres,erase
outres,all,none
outres,nsol,all,
outres,rsol,all
outres,eangl,all
outres,etmp,all
outres,veng,all
outres,strs,all,
outres,epel,all,
outres,eppl,all,
outres,cont,all,
solve
/com,****************************************************
/com,*************** FINISHED SOLVE FOR LS 85 *************
/com,****************************************************
/com,******************* SOLVE FOR LS 86 OF 100 ****************
/nopr
/gopr
autots,on                  ! Workbench Program Controlled automatic time stepping
nsub,1,10,1                ! due to presence of general nonlinear
time,86.
outres,erase
outres,all,none
outres,nsol,all,
outres,rsol,all
outres,eangl,all
outres,etmp,all
outres,veng,all
outres,strs,all,
outres,epel,all,
outres,eppl,all,
outres,cont,all,
solve
/com,****************************************************
/com,*************** FINISHED SOLVE FOR LS 86 *************
/com,****************************************************
/com,******************* SOLVE FOR LS 87 OF 100 ****************
/nopr
/gopr
autots,on                  ! Workbench Program Controlled automatic time stepping
nsub,1,10,1                ! due to presence of general nonlinear
time,87.
outres,erase
outres,all,none
outres,nsol,all,
outres,rsol,all
outres,eangl,all
outres,etmp,all
outres,veng,all
outres,strs,all,
outres,epel,all,
outres,eppl,all,
outres,cont,all,
solve
/com,****************************************************
/com,*************** FINISHED SOLVE FOR LS 87 *************
/com,****************************************************
/com,******************* SOLVE FOR LS 88 OF 100 ****************
/nopr
/gopr
autots,on                  ! Workbench Program Controlled automatic time stepping
nsub,1,10,1                ! due to presence of general nonlinear
time,88.
outres,erase
outres,all,none
outres,nsol,all,
outres,rsol,all
outres,eangl,all
outres,etmp,all
outres,veng,all
outres,strs,all,
outres,epel,all,
outres,eppl,all,
outres,cont,all,
solve
/com,****************************************************
/com,*************** FINISHED SOLVE FOR LS 88 *************
/com,****************************************************
/com,******************* SOLVE FOR LS 89 OF 100 ****************
/nopr
/gopr
autots,on                  ! Workbench Program Controlled automatic time stepping
nsub,1,10,1                ! due to presence of general nonlinear
time,89.
outres,erase
outres,all,none
outres,nsol,all,
outres,rsol,all
outres,eangl,all
outres,etmp,all
outres,veng,all
outres,strs,all,
outres,epel,all,
outres,eppl,all,
outres,cont,all,
solve
/com,****************************************************
/com,*************** FINISHED SOLVE FOR LS 89 *************
/com,****************************************************
/com,******************* SOLVE FOR LS 90 OF 100 ****************
/nopr
/gopr
autots,on                  ! Workbench Program Controlled automatic time stepping
nsub,1,10,1                ! due to presence of general nonlinear
time,90.
outres,erase
outres,all,none
outres,nsol,all,
outres,rsol,all
outres,eangl,all
outres,etmp,all
outres,veng,all
outres,strs,all,
outres,epel,all,
outres,eppl,all,
outres,cont,all,
solve
/com,****************************************************
/com,*************** FINISHED SOLVE FOR LS 90 *************
/com,****************************************************
/com,******************* SOLVE FOR LS 91 OF 100 ****************
/nopr
/gopr
autots,on                  ! Workbench Program Controlled automatic time stepping
nsub,1,10,1                ! due to presence of general nonlinear
time,91.
outres,erase
outres,all,none
outres,nsol,all,
outres,rsol,all
outres,eangl,all
outres,etmp,all
outres,veng,all
outres,strs,all,
outres,epel,all,
outres,eppl,all,
outres,cont,all,
solve
/com,****************************************************
/com,*************** FINISHED SOLVE FOR LS 91 *************
/com,****************************************************
/com,******************* SOLVE FOR LS 92 OF 100 ****************
/nopr
/gopr
autots,on                  ! Workbench Program Controlled automatic time stepping
nsub,1,10,1                ! due to presence of general nonlinear
time,92.
outres,erase
outres,all,none
outres,nsol,all,
outres,rsol,all
outres,eangl,all
outres,etmp,all
outres,veng,all
outres,strs,all,
outres,epel,all,
outres,eppl,all,
outres,cont,all,
solve
/com,****************************************************
/com,*************** FINISHED SOLVE FOR LS 92 *************
/com,****************************************************
/com,******************* SOLVE FOR LS 93 OF 100 ****************
/nopr
/gopr
autots,on                  ! Workbench Program Controlled automatic time stepping
nsub,1,10,1                ! due to presence of general nonlinear
time,93.
outres,erase
outres,all,none
outres,nsol,all,
outres,rsol,all
outres,eangl,all
outres,etmp,all
outres,veng,all
outres,strs,all,
outres,epel,all,
outres,eppl,all,
outres,cont,all,
solve
/com,****************************************************
/com,*************** FINISHED SOLVE FOR LS 93 *************
/com,****************************************************
/com,******************* SOLVE FOR LS 94 OF 100 ****************
/nopr
/gopr
autots,on                  ! Workbench Program Controlled automatic time stepping
nsub,1,10,1                ! due to presence of general nonlinear
time,94.
outres,erase
outres,all,none
outres,nsol,all,
outres,rsol,all
outres,eangl,all
outres,etmp,all
outres,veng,all
outres,strs,all,
outres,epel,all,
outres,eppl,all,
outres,cont,all,
solve
/com,****************************************************
/com,*************** FINISHED SOLVE FOR LS 94 *************
/com,****************************************************
/com,******************* SOLVE FOR LS 95 OF 100 ****************
/nopr
/gopr
autots,on                  ! Workbench Program Controlled automatic time stepping
nsub,1,10,1                ! due to presence of general nonlinear
time,95.
outres,erase
outres,all,none
outres,nsol,all,
outres,rsol,all
outres,eangl,all
outres,etmp,all
outres,veng,all
outres,strs,all,
outres,epel,all,
outres,eppl,all,
outres,cont,all,
solve
/com,****************************************************
/com,*************** FINISHED SOLVE FOR LS 95 *************
/com,****************************************************
/com,******************* SOLVE FOR LS 96 OF 100 ****************
/nopr
/gopr
autots,on                  ! Workbench Program Controlled automatic time stepping
nsub,1,10,1                ! due to presence of general nonlinear
time,96.
outres,erase
outres,all,none
outres,nsol,all,
outres,rsol,all
outres,eangl,all
outres,etmp,all
outres,veng,all
outres,strs,all,
outres,epel,all,
outres,eppl,all,
outres,cont,all,
solve
/com,****************************************************
/com,*************** FINISHED SOLVE FOR LS 96 *************
/com,****************************************************
/com,******************* SOLVE FOR LS 97 OF 100 ****************
/nopr
/gopr
autots,on                  ! Workbench Program Controlled automatic time stepping
nsub,1,10,1                ! due to presence of general nonlinear
time,97.
outres,erase
outres,all,none
outres,nsol,all,
outres,rsol,all
outres,eangl,all
outres,etmp,all
outres,veng,all
outres,strs,all,
outres,epel,all,
outres,eppl,all,
outres,cont,all,
solve
/com,****************************************************
/com,*************** FINISHED SOLVE FOR LS 97 *************
/com,****************************************************
/com,******************* SOLVE FOR LS 98 OF 100 ****************
/nopr
/gopr
autots,on                  ! Workbench Program Controlled automatic time stepping
nsub,1,10,1                ! due to presence of general nonlinear
time,98.
outres,erase
outres,all,none
outres,nsol,all,
outres,rsol,all
outres,eangl,all
outres,etmp,all
outres,veng,all
outres,strs,all,
outres,epel,all,
outres,eppl,all,
outres,cont,all,
solve
/com,****************************************************
/com,*************** FINISHED SOLVE FOR LS 98 *************
/com,****************************************************
/com,******************* SOLVE FOR LS 99 OF 100 ****************
/nopr
/gopr
autots,on                  ! Workbench Program Controlled automatic time stepping
nsub,1,10,1                ! due to presence of general nonlinear
time,99.
outres,erase
outres,all,none
outres,nsol,all,
outres,rsol,all
outres,eangl,all
outres,etmp,all
outres,veng,all
outres,strs,all,
outres,epel,all,
outres,eppl,all,
outres,cont,all,
solve
/com,****************************************************
/com,*************** FINISHED SOLVE FOR LS 99 *************
/com,****************************************************
/com,******************* SOLVE FOR LS 100 OF 100 ****************
/nopr
/gopr
autots,on                  ! Workbench Program Controlled automatic time stepping
nsub,1,10,1                ! due to presence of general nonlinear
time,100.
outres,erase
outres,all,none
outres,nsol,all,
outres,rsol,all
outres,eangl,all
outres,etmp,all
outres,veng,all
outres,strs,all,
outres,epel,all,
outres,eppl,all,
outres,cont,all,
solve
/com,****************************************************
/com,*************** FINISHED SOLVE FOR LS 100 *************
*get,_wallasol,active,,time,wall
/nopr
*get,_numnode,node,0,count
*get,_numelem,elem,0,count
*get, _MAXELEMNUM, elem, 0, NUM, MAX
*get, _MAXNODENUM, node, 0, NUM, MAX,,,INTERNAL
*get, _MAXELEMTYPE, etyp, 0, NUM, MAX
*get, _MAXREALCONST, real, 0, NUM, MAX
/gopr
/post1
xmlo,ENCODING,ISO-8859-1
xmlo,parm
/xml,parm,xml
fini
/gopr
*get,_walldone,active,,time,wall
_preptime=(_wallbsol-_wallstrt)*3600
_solvtime=(_wallasol-_wallbsol)*3600
_posttime=(_walldone-_wallasol)*3600
_totaltim=(_walldone-_wallstrt)*3600
*get,_dlbratio,active,0,solu,dlbr
*get,_combtime,active,0,solu,comb
/com,--- Number of total nodes = %_numnode%
/com,--- Number of total elements = %_numelem%
/com,--- Element load balance ratio = %_dlbratio%
/com,--- Time to combine distributed files = %_combtime%
/wb,file,end               ! done with WB generated input
